*Heading
** Job name: Job-1 Model name: Model-1
** Generated by: Abaqus/CAE 2024
*Preprint, echo=NO, model=NO, history=NO, contact=NO
**
** PARTS
**
*Part, name=Block
*Node
      1,           0.,           0.
      2,           1.,           0.
      3,           2.,           0.
      4,           3.,           0.
      5,           4.,           0.
      6,           5.,           0.
      7,           6.,           0.
      8,           7.,           0.
      9,           8.,           0.
     10,           9.,           0.
     11,          10.,           0.
     12,          11.,           0.
     13,          12.,           0.
     14,          13.,           0.
     15,          14.,           0.
     16,          15.,           0.
     17,          16.,           0.
     18,          17.,           0.
     19,          18.,           0.
     20,          19.,           0.
** ... 841 like lines cut
*Element, type=CPE4I
  1,   1,   2,  43,  42
  2,   2,   3,  44,  43
  3,   3,   4,  45,  44
  4,   4,   5,  46,  45
  5,   5,   6,  47,  46
  6,   6,   7,  48,  47
  7,   7,   8,  49,  48
  8,   8,   9,  50,  49
  9,   9,  10,  51,  50
 10,  10,  11,  52,  51
 11,  11,  12,  53,  52
 12,  12,  13,  54,  53
 13,  13,  14,  55,  54
 14,  14,  15,  56,  55
 15,  15,  16,  57,  56
 16,  16,  17,  58,  57
 17,  17,  18,  59,  58
 18,  18,  19,  60,  59
 19,  19,  20,  61,  60
 20,  20,  21,  62,  61
** ... 780 like lines cut
*Nset, nset=_PickedSet2, internal, generate
   1,  861,    1
*Elset, elset=_PickedSet2, internal, generate
   1,  800,    1
** Section: SolidSection
*Solid Section, elset=_PickedSet2, material=Mat-1
,
*End Part
**  
*Part, name=Indenter
*Node
      1,          20.,          22.,           0.
*Nset, nset=Indenter-RefPt_, internal
1, 
*End Part
**  
**
** ASSEMBLY
**
*Assembly, name=Assembly
**  
*Instance, name=Block-1, part=Block
*End Instance
**  
*Instance, name=Indenter-1, part=Indenter
*End Instance
**  
*Nset, nset=_PickedSet8, internal, instance=Block-1, generate
  1,  41,   1
*Elset, elset=_PickedSet8, internal, instance=Block-1, generate
  1,  40,   1
*Nset, nset=_PickedSet9, internal, instance=Indenter-1
 1,
*Elset, elset=_S_BLOCK_TOP_S3, internal, instance=Block-1, generate
 761,  800,    1
*Surface, type=ELEMENT, name=S_BLOCK_TOP
_S_BLOCK_TOP_S3, S3
*End Assembly
** 
** MATERIALS
** 
*Material, name=Mat-1
*Elastic
210000., 0.3
** 
** INTERACTION PROPERTIES
** 
*Surface Interaction, name=IntProp-1
1.,
*Friction
0.,
*Surface Behavior, pressure-overclosure=HARD
** 
** BOUNDARY CONDITIONS
** 
** Name: BC-Bottom Type: ¶ÔłĆ/·´¶ÔłĆ/ÍęČ«ąĚ¶¨
*Boundary
_PickedSet8, ENCASTRE
** 
** INTERACTIONS
** 
** Interaction: Int-1
*Contact Pair, interaction=IntProp-1, type=SURFACE TO SURFACE
S_BLOCK_TOP, S_IND
** ----------------------------------------------------------------
** 
** STEP: Step-1
** 
*Step, name=Step-1, nlgeom=NO
*Static
0.001, 1., 1e-08, 0.01
** 
** BOUNDARY CONDITIONS
** 
** Name: BC-Indenter Type: Î»ŇĆ/×Ş˝Ç
*Boundary
_PickedSet9, 1, 1
_PickedSet9, 2, 2, -0.02
_PickedSet9, 6, 6
** 
** OUTPUT REQUESTS
** 
*Restart, write, frequency=0
** 
** FIELD OUTPUT: F-Output-1
** 
*Output, field, variable=PRESELECT
** 
** HISTORY OUTPUT: H-Output-1
** 
*Output, history, variable=PRESELECT
*End Step
